
#======================================================================
# CRYSTAL DATA
#----------------------------------------------------------------------
data_VESTA_phase_1

_chemical_name_common                  'XCrySDen XSF file'
_cell_length_a                         8.270587
_cell_length_b                         8.270590
_cell_length_c                         8.326879
_cell_angle_alpha                      60.223362
_cell_angle_beta                       60.223366
_cell_angle_gamma                      59.999989
_cell_volume                           404.108542
_space_group_name_H-M_alt              'P 1'
_space_group_IT_number                 1

loop_
_space_group_symop_operation_xyz
   'x, y, z'

loop_
   _atom_site_label
   _atom_site_occupancy
   _atom_site_fract_x
   _atom_site_fract_y
   _atom_site_fract_z
   _atom_site_adp_type
   _atom_site_U_iso_or_equiv
   _atom_site_type_symbol
   Ge1        1.0     0.360677     0.360677     0.917969    Uiso  ? Ge
   Ge2        1.0     0.860677     0.860677     0.417969    Uiso  ? Ge
   Ge3        1.0     0.639323     0.639323     0.082031    Uiso  ? Ge
   Ge4        1.0     0.139323     0.139323     0.582031    Uiso  ? Ge
   Li1        1.0     0.500000     0.500000     0.500000    Uiso  ? Li
   Li2        1.0     0.000000     0.000000     0.000000    Uiso  ? Li
   O1         1.0     0.307975     0.123555     0.060281    Uiso  ? O
   O2         1.0     0.508189     0.307975     0.060281    Uiso  ? O
   O3         1.0     0.123555     0.508189     0.060281    Uiso  ? O
   O4         1.0     0.623555     0.807975     0.560281    Uiso  ? O
   O5         1.0     0.008189     0.623555     0.560281    Uiso  ? O
   O6         1.0     0.807975     0.008189     0.560281    Uiso  ? O
   O7         1.0     0.692025     0.876445     0.939719    Uiso  ? O
   O8         1.0     0.491811     0.692025     0.939719    Uiso  ? O
   O9         1.0     0.876445     0.491811     0.939719    Uiso  ? O
   O10        1.0     0.376445     0.192025     0.439719    Uiso  ? O
   O11        1.0     0.991811     0.376445     0.439719    Uiso  ? O
   O12        1.0     0.192025     0.991811     0.439719    Uiso  ? O
   O13        1.0     0.581105     0.239664     0.732775    Uiso  ? O
   O14        1.0     0.446456     0.581105     0.732775    Uiso  ? O
   O15        1.0     0.239664     0.446456     0.732775    Uiso  ? O
   O16        1.0     0.739664     0.081105     0.232775    Uiso  ? O
   O17        1.0     0.946456     0.739664     0.232775    Uiso  ? O
   O18        1.0     0.081105     0.946456     0.232775    Uiso  ? O
   O19        1.0     0.418895     0.760336     0.267225    Uiso  ? O
   O20        1.0     0.553544     0.418895     0.267225    Uiso  ? O
   O21        1.0     0.760336     0.553544     0.267225    Uiso  ? O
   O22        1.0     0.260336     0.918895     0.767225    Uiso  ? O
   O23        1.0     0.053544     0.260336     0.767225    Uiso  ? O
   O24        1.0     0.918895     0.053544     0.767225    Uiso  ? O
   P1         1.0     0.250000     0.960587     0.250000    Uiso  ? P
   P2         1.0     0.539413     0.250000     0.250000    Uiso  ? P
   P3         1.0     0.960587     0.539413     0.250000    Uiso  ? P
   P4         1.0     0.460587     0.750000     0.750000    Uiso  ? P
   P5         1.0     0.039413     0.460587     0.750000    Uiso  ? P
   P6         1.0     0.750000     0.039413     0.750000    Uiso  ? P
