
#======================================================================
# CRYSTAL DATA
#----------------------------------------------------------------------
data_VESTA_phase_1

_chemical_name_common                  'Fe12 V24 O84 Li12'
_cell_length_a                         13.4630(2)
_cell_length_b                         8.18820(10)
_cell_length_c                         14.3860(2)
_cell_angle_alpha                      90.000000
_cell_angle_beta                       96.5470(10)
_cell_angle_gamma                      90.000000
_cell_volume                           1575.538024
_space_group_name_H-M_alt              'C c'
_space_group_IT_number                 9

loop_
_space_group_symop_operation_xyz
   'x, y, z'
   'x, -y, z+1/2'
   'x+1/2, y+1/2, z'
   'x+1/2, -y+1/2, z+1/2'

loop_
   _atom_site_label
   _atom_site_occupancy
   _atom_site_fract_x
   _atom_site_fract_y
   _atom_site_fract_z
   _atom_site_adp_type
   _atom_site_U_iso_or_equiv
   _atom_site_type_symbol
   Fe1        1.0     0.498900     0.800700     0.368300    Uani  0.007921 Fe
   Fe2        1.0     0.851600     0.824900     0.541700    Uani  0.008089 Fe
   Fe3        1.0     0.699600     0.305700     0.711800    Uani  0.008245 Fe
   V1         1.0     0.423800     1.026600     0.176300    Uani  0.007979 V
   V2         1.0     0.704600     0.963100     0.357200    Uani  0.008100 V
   V3         1.0     0.574200     0.457700     0.515200    Uani  0.008222 V
   V4         1.0     0.626700     0.954600     0.567000    Uani  0.007766 V
   V5         1.0     0.274000     0.974200     0.404400    Uani  0.007395 V
   V6         1.0     0.406000     0.459700     0.240300    Uani  0.007922 V
   O1         1.0     0.479400     0.322600     0.485200    Uani  0.011124 O
   O2         1.0     0.323400     1.149400     0.146700    Uani  0.011623 O
   O3         1.0     0.237200     0.992400     0.287800    Uani  0.010139 O
   O4         1.0     0.394200     0.486500     0.120000    Uani  0.009944 O
   O5         1.0     0.422700     0.641100     0.292600    Uani  0.014144 O
   O6         1.0     0.295300     1.160100     0.448900    Uani  0.017244 O
   O7         1.0     0.526900     0.884200     0.623900    Uani  0.013603 O
   O8         1.0     0.620700     0.789300     0.303800    Uani  0.009940 O
   O9         1.0     0.592200     0.968400     0.442600    Uani  0.009498 O
   O10        1.0     0.675500     1.135800     0.307000    Uani  0.013731 O
   O11        1.0     0.661900     1.136700     0.608700    Uani  0.014417 O
   O12        1.0     0.674000     0.382000     0.457200    Uani  0.014727 O
   O13        1.0     0.293200     0.369600     0.278300    Uani  0.010563 O
   O14        1.0     0.503400     0.343600     0.273700    Uani  0.013618 O
   O15        1.0     0.454500     1.002800     0.293700    Uani  0.011140 O
   O16        1.0     0.541700     0.643300     0.473600    Uani  0.015578 O
   O17        1.0     0.404200     0.842800     0.129600    Uani  0.015468 O
   O18        1.0     0.788400     0.999600     0.453300    Uani  0.011523 O
   O19        1.0     0.614400     0.463500     0.632600    Uani  0.011070 O
   O20        1.0     0.376100     0.854100     0.433700    Uani  0.012906 O
   O21        1.0     0.717900     0.818200     0.596700    Uani  0.014070 O
   Li1        1.0     0.637600     0.677700     0.710300    Uani  0.007729 Li
   Li2        1.0     0.336500     0.304900     0.035500    Uani  0.033742 Li
   Li3        1.0     0.524700     0.185300     0.379200    Uani  0.023574 Li

loop_
   _atom_site_aniso_label
   _atom_site_aniso_U_11
   _atom_site_aniso_U_22
   _atom_site_aniso_U_33
   _atom_site_aniso_U_12
   _atom_site_aniso_U_13
   _atom_site_aniso_U_23
   Fe1	 0.00690  0.00770  0.00900 -0.00020  0.00020  0.00010
   Fe2	 0.00750  0.00780  0.00880  0.00110  0.00020 -0.00040
   Fe3	 0.00790  0.00870  0.00820 -0.00010  0.00120  0.00000
   V1	 0.00680  0.00870  0.00840  0.00060  0.00070  0.00020
   V2	 0.00820  0.00780  0.00820 -0.00020  0.00050  0.00020
   V3	 0.00810  0.00840  0.00800 -0.00020  0.00020  0.00050
   V4	 0.00750  0.00870  0.00700 -0.00010  0.00040 -0.00030
   V5	 0.00740  0.00800  0.00660  0.00070  0.00000  0.00020
   V6	 0.00790  0.00810  0.00770 -0.00010  0.00060  0.00030
   O1	 0.00870  0.01300  0.01200 -0.00300  0.00260 -0.00230
   O2	 0.00590  0.01800  0.01100  0.00330  0.00110  0.00530
   O3	 0.01230  0.01100  0.00700 -0.00160  0.00060  0.00160
   O4	 0.01260  0.00750  0.00910 -0.00010 -0.00150  0.00300
   O5	 0.01700  0.01100  0.01400 -0.00430 -0.00010 -0.00370
   O6	 0.02000  0.01300  0.01800 -0.00220 -0.00100 -0.00210
   O7	 0.01080  0.01700  0.01400  0.00290  0.00570 -0.00300
   O8	 0.01000  0.01050  0.00980 -0.00210  0.00320 -0.00250
   O9	 0.00970  0.01250  0.00620 -0.00120  0.00050  0.00080
   O10	 0.01500  0.01400  0.01200  0.00000  0.00070  0.00240
   O11	 0.02000  0.01000  0.01300 -0.00170  0.00080 -0.00030
   O12	 0.01580  0.01370  0.01570  0.00250  0.00620 -0.00100
   O13	 0.00950  0.01060  0.01200 -0.00140  0.00300 -0.00130
   O14	 0.01070  0.01500  0.01500  0.00380  0.00080  0.00440
   O15	 0.01390  0.01100  0.00800  0.00110 -0.00100  0.00010
   O16	 0.02000  0.01300  0.01300  0.00360 -0.00130  0.00410
   O17	 0.02100  0.01000  0.01500 -0.00280  0.00030 -0.00530
   O18	 0.01330  0.01100  0.00930  0.00150 -0.00290 -0.00080
   O19	 0.00940  0.01300  0.01000  0.00200 -0.00240 -0.00080
   O20	 0.01400  0.01300  0.01200  0.00310  0.00270  0.00200
   O21	 0.00930  0.01400  0.01900  0.00060  0.00200  0.00530
   Li1	 0.00800  0.00700  0.00800 -0.00010  0.00010 -0.00110
   Li2	 0.03600  0.03300  0.03200  0.00010  0.00290  0.00000
   Li3	 0.03900  0.02200  0.01000  0.01200  0.00400  0.00000
