
#======================================================================
# CRYSTAL DATA
#----------------------------------------------------------------------
data_VESTA_phase_1

_chemical_name_common                  'XCrySDen XSF file'
_cell_length_a                         5.168500
_cell_length_b                         5.168500
_cell_length_c                         6.256500
_cell_angle_alpha                      90.000000
_cell_angle_beta                       90.000000
_cell_angle_gamma                      90.000000
_cell_volume                           167.132329
_space_group_name_H-M_alt              'P 1'
_space_group_IT_number                 1

loop_
_space_group_symop_operation_xyz
   'x, y, z'

loop_
   _atom_site_label
   _atom_site_occupancy
   _atom_site_fract_x
   _atom_site_fract_y
   _atom_site_fract_z
   _atom_site_adp_type
   _atom_site_U_iso_or_equiv
   _atom_site_type_symbol
   Li1        1.0     0.313570     0.686430     0.750000    Uiso  ? Li
   Li2        1.0     0.686430     0.313570     0.250000    Uiso  ? Li
   Li3        1.0     0.186430     0.186430     0.500000    Uiso  ? Li
   Li4        1.0     0.813570     0.813570     0.000000    Uiso  ? Li
   Al1        1.0     0.675318     0.324682     0.750000    Uiso  ? Al
   Al2        1.0     0.324682     0.675318     0.250000    Uiso  ? Al
   Al3        1.0     0.824682     0.824682     0.500000    Uiso  ? Al
   Al4        1.0     0.175318     0.175318     0.000000    Uiso  ? Al
   O1         1.0     0.834719     0.208142     0.978976    Uiso  ? O
   O2         1.0     0.165281     0.791858     0.478976    Uiso  ? O
   O3         1.0     0.708142     0.665281     0.728976    Uiso  ? O
   O4         1.0     0.291858     0.334719     0.228976    Uiso  ? O
   O5         1.0     0.791858     0.165281     0.521024    Uiso  ? O
   O6         1.0     0.208142     0.834719     0.021024    Uiso  ? O
   O7         1.0     0.665281     0.708142     0.271024    Uiso  ? O
   O8         1.0     0.334719     0.291858     0.771024    Uiso  ? O
