
#======================================================================
# CRYSTAL DATA
#----------------------------------------------------------------------
data_VESTA_phase_1

_chemical_name_common                  '"Sn8 Ge20 Na16 O64"'
_cell_length_a                         6.588800
_cell_length_b                         12.163300
_cell_length_c                         19.288300
_cell_angle_alpha                      90.000000
_cell_angle_beta                       90.000000
_cell_angle_gamma                      90.000000
_cell_volume                           1545.794177
_space_group_name_H-M_alt              'P 1'
_space_group_IT_number                 1

loop_
_space_group_symop_operation_xyz
   'x, y, z'

loop_
   _atom_site_label
   _atom_site_occupancy
   _atom_site_fract_x
   _atom_site_fract_y
   _atom_site_fract_z
   _atom_site_adp_type
   _atom_site_U_iso_or_equiv
   _atom_site_type_symbol
   Sn1        1.0     0.212180     0.536860     0.391600    Uiso  ? Sn
   Sn2        1.0     0.787820     0.463140     0.608400    Uiso  ? Sn
   Sn3        1.0     0.287820     0.963140     0.891600    Uiso  ? Sn
   Sn4        1.0     0.712180     0.036860     0.108400    Uiso  ? Sn
   Sn5        1.0     0.787820     0.536860     0.108400    Uiso  ? Sn
   Sn6        1.0     0.212180     0.463140     0.891600    Uiso  ? Sn
   Sn7        1.0     0.712180     0.963140     0.608400    Uiso  ? Sn
   Sn8        1.0     0.287820     0.036860     0.391600    Uiso  ? Sn
   Ge1        1.0     0.715490     0.500630     0.432950    Uiso  ? Ge
   Ge2        1.0     0.284510     0.499370     0.567050    Uiso  ? Ge
   Ge3        1.0     0.784510     0.999370     0.932950    Uiso  ? Ge
   Ge4        1.0     0.215490     0.000630     0.067050    Uiso  ? Ge
   Ge5        1.0     0.284510     0.500630     0.067050    Uiso  ? Ge
   Ge6        1.0     0.715490     0.499370     0.932950    Uiso  ? Ge
   Ge7        1.0     0.215490     0.999370     0.567050    Uiso  ? Ge
   Ge8        1.0     0.784510     0.000630     0.432950    Uiso  ? Ge
   Ge9        1.0     0.500000     0.164040     0.250000    Uiso  ? Ge
   Ge10       1.0     0.500000     0.835960     0.750000    Uiso  ? Ge
   Ge11       1.0     0.000000     0.335960     0.750000    Uiso  ? Ge
   Ge12       1.0     0.000000     0.664040     0.250000    Uiso  ? Ge
   Ge13       1.0     0.468440     0.298970     0.379830    Uiso  ? Ge
   Ge14       1.0     0.531560     0.701030     0.620170    Uiso  ? Ge
   Ge15       1.0     0.031560     0.201030     0.879830    Uiso  ? Ge
   Ge16       1.0     0.968440     0.798970     0.120170    Uiso  ? Ge
   Ge17       1.0     0.531560     0.298970     0.120170    Uiso  ? Ge
   Ge18       1.0     0.468440     0.701030     0.879830    Uiso  ? Ge
   Ge19       1.0     0.968440     0.201030     0.620170    Uiso  ? Ge
   Ge20       1.0     0.031560     0.798970     0.379830    Uiso  ? Ge
   Na1        1.0     0.506110     0.236040     0.542770    Uiso  ? Na
   Na2        1.0     0.500000     0.899950     0.250000    Uiso  ? Na
   Na3        1.0     0.993890     0.263960     0.042770    Uiso  ? Na
   Na4        1.0     0.006110     0.736040     0.957230    Uiso  ? Na
   Na5        1.0     0.493890     0.236040     0.957230    Uiso  ? Na
   Na6        1.0     0.506110     0.763960     0.042770    Uiso  ? Na
   Na7        1.0     0.006110     0.263960     0.457230    Uiso  ? Na
   Na8        1.0     0.993890     0.736040     0.542770    Uiso  ? Na
   Na9        1.0     0.000000     0.016040     0.250000    Uiso  ? Na
   Na10       1.0     0.000000     0.983960     0.750000    Uiso  ? Na
   Na11       1.0     0.500000     0.483960     0.750000    Uiso  ? Na
   Na12       1.0     0.500000     0.516040     0.250000    Uiso  ? Na
   Na13       1.0     0.000000     0.399950     0.250000    Uiso  ? Na
   Na14       1.0     0.000000     0.600050     0.750000    Uiso  ? Na
   Na15       1.0     0.500000     0.100050     0.750000    Uiso  ? Na
   O1         1.0     0.915330     0.492690     0.372480    Uiso  ? O
   O2         1.0     0.084670     0.507310     0.627520    Uiso  ? O
   O3         1.0     0.584670     0.007310     0.872480    Uiso  ? O
   O4         1.0     0.415330     0.992690     0.127520    Uiso  ? O
   O5         1.0     0.084670     0.492690     0.127520    Uiso  ? O
   O6         1.0     0.915330     0.507310     0.872480    Uiso  ? O
   O7         1.0     0.415330     0.007310     0.627520    Uiso  ? O
   O8         1.0     0.584670     0.992690     0.372480    Uiso  ? O
   O9         1.0     0.786320     0.550150     0.515400    Uiso  ? O
   O10        1.0     0.213680     0.449850     0.484600    Uiso  ? O
   O11        1.0     0.713680     0.949850     0.015400    Uiso  ? O
   O12        1.0     0.286320     0.050150     0.984600    Uiso  ? O
   O13        1.0     0.213680     0.550150     0.984600    Uiso  ? O
   O14        1.0     0.786320     0.449850     0.015400    Uiso  ? O
   O15        1.0     0.286320     0.949850     0.484600    Uiso  ? O
   O16        1.0     0.713680     0.050150     0.515400    Uiso  ? O
   O17        1.0     0.517670     0.581640     0.397620    Uiso  ? O
   O18        1.0     0.482330     0.418360     0.602380    Uiso  ? O
   O19        1.0     0.982330     0.918360     0.897620    Uiso  ? O
   O20        1.0     0.017670     0.081640     0.102380    Uiso  ? O
   O21        1.0     0.482330     0.581640     0.102380    Uiso  ? O
   O22        1.0     0.517670     0.418360     0.897620    Uiso  ? O
   O23        1.0     0.017670     0.918360     0.602380    Uiso  ? O
   O24        1.0     0.982330     0.081640     0.397620    Uiso  ? O
   O25        1.0     0.641700     0.357050     0.440940    Uiso  ? O
   O26        1.0     0.358300     0.642950     0.559060    Uiso  ? O
   O27        1.0     0.858300     0.142950     0.940940    Uiso  ? O
   O28        1.0     0.141700     0.857050     0.059060    Uiso  ? O
   O29        1.0     0.358300     0.357050     0.059060    Uiso  ? O
   O30        1.0     0.641700     0.642950     0.940940    Uiso  ? O
   O31        1.0     0.141700     0.142950     0.559060    Uiso  ? O
   O32        1.0     0.858300     0.857050     0.440940    Uiso  ? O
   O33        1.0     0.351560     0.194740     0.429300    Uiso  ? O
   O34        1.0     0.648440     0.805260     0.570700    Uiso  ? O
   O35        1.0     0.148440     0.305260     0.929300    Uiso  ? O
   O36        1.0     0.851560     0.694740     0.070700    Uiso  ? O
   O37        1.0     0.648440     0.194740     0.070700    Uiso  ? O
   O38        1.0     0.351560     0.805260     0.929300    Uiso  ? O
   O39        1.0     0.851560     0.305260     0.570700    Uiso  ? O
   O40        1.0     0.148440     0.694740     0.429300    Uiso  ? O
   O41        1.0     0.297070     0.391090     0.340620    Uiso  ? O
   O42        1.0     0.702930     0.608910     0.659380    Uiso  ? O
   O43        1.0     0.202930     0.108910     0.840620    Uiso  ? O
   O44        1.0     0.797070     0.891090     0.159380    Uiso  ? O
   O45        1.0     0.702930     0.391090     0.159380    Uiso  ? O
   O46        1.0     0.297070     0.608910     0.840620    Uiso  ? O
   O47        1.0     0.797070     0.108910     0.659380    Uiso  ? O
   O48        1.0     0.202930     0.891090     0.340620    Uiso  ? O
   O49        1.0     0.627620     0.250330     0.311620    Uiso  ? O
   O50        1.0     0.372380     0.749670     0.688380    Uiso  ? O
   O51        1.0     0.872380     0.249670     0.811620    Uiso  ? O
   O52        1.0     0.127620     0.750330     0.188380    Uiso  ? O
   O53        1.0     0.372380     0.250330     0.188380    Uiso  ? O
   O54        1.0     0.627620     0.749670     0.811620    Uiso  ? O
   O55        1.0     0.127620     0.249670     0.688380    Uiso  ? O
   O56        1.0     0.872380     0.750330     0.311620    Uiso  ? O
   O57        1.0     0.299080     0.090620     0.287600    Uiso  ? O
   O58        1.0     0.700920     0.909380     0.712400    Uiso  ? O
   O59        1.0     0.200920     0.409380     0.787600    Uiso  ? O
   O60        1.0     0.799080     0.590620     0.212400    Uiso  ? O
   O61        1.0     0.700920     0.090620     0.212400    Uiso  ? O
   O62        1.0     0.299080     0.909380     0.787600    Uiso  ? O
   O63        1.0     0.799080     0.409380     0.712400    Uiso  ? O
   O64        1.0     0.200920     0.590620     0.287600    Uiso  ? O
