
#======================================================================
# CRYSTAL DATA
#----------------------------------------------------------------------
data_VESTA_phase_1

_chemical_name_common                  'XCrySDen XSF file'
_cell_length_a                         8.402949
_cell_length_b                         8.402949
_cell_length_c                         20.734537
_cell_angle_alpha                      90.000000
_cell_angle_beta                       90.000000
_cell_angle_gamma                      120.000000
_cell_volume                           1267.910114
_space_group_name_H-M_alt              'P 1'
_space_group_IT_number                 1

loop_
_space_group_symop_operation_xyz
   'x, y, z'

loop_
   _atom_site_label
   _atom_site_occupancy
   _atom_site_fract_x
   _atom_site_fract_y
   _atom_site_fract_z
   _atom_site_adp_type
   _atom_site_U_iso_or_equiv
   _atom_site_type_symbol
   P1         1.0     0.289946     0.000000     0.250000    Uiso  ? P
   P2         1.0     0.710054     0.710054     0.250000    Uiso  ? P
   P3         1.0    -0.000000     0.289946     0.250000    Uiso  ? P
   P4         1.0     0.289946     0.289946     0.750000    Uiso  ? P
   P5         1.0     0.000000     0.710054     0.750000    Uiso  ? P
   P6         1.0     0.710054    -0.000000     0.750000    Uiso  ? P
   P7         1.0     0.956613     0.333333     0.583333    Uiso  ? P
   P8         1.0     0.376720     0.043387     0.583333    Uiso  ? P
   P9         1.0     0.666667     0.623280     0.583333    Uiso  ? P
   P10        1.0     0.956613     0.623280     0.083333    Uiso  ? P
   P11        1.0     0.666667     0.043387     0.083333    Uiso  ? P
   P12        1.0     0.376720     0.333333     0.083333    Uiso  ? P
   P13        1.0     0.623280     0.666667     0.916667    Uiso  ? P
   P14        1.0     0.043387     0.376720     0.916667    Uiso  ? P
   P15        1.0     0.333333     0.956613     0.916667    Uiso  ? P
   P16        1.0     0.623280     0.956613     0.416667    Uiso  ? P
   P17        1.0     0.333333     0.376720     0.416667    Uiso  ? P
   P18        1.0     0.043387     0.666667     0.416667    Uiso  ? P
   O1         1.0     0.199924     0.015096     0.312213    Uiso  ? O
   O2         1.0     0.815172     0.800076     0.312213    Uiso  ? O
   O3         1.0     0.984904     0.184828     0.312213    Uiso  ? O
   O4         1.0     0.199924     0.184828     0.812213    Uiso  ? O
   O5         1.0     0.984904     0.800076     0.812213    Uiso  ? O
   O6         1.0     0.815172     0.015096     0.812213    Uiso  ? O
   O7         1.0     0.800076     0.984904     0.687787    Uiso  ? O
   O8         1.0     0.184828     0.199924     0.687787    Uiso  ? O
   O9         1.0     0.015096     0.815172     0.687787    Uiso  ? O
   O10        1.0     0.800076     0.815172     0.187787    Uiso  ? O
   O11        1.0     0.015096     0.199924     0.187787    Uiso  ? O
   O12        1.0     0.184828     0.984904     0.187787    Uiso  ? O
   O13        1.0     0.866591     0.348430     0.645546    Uiso  ? O
   O14        1.0     0.481839     0.133409     0.645546    Uiso  ? O
   O15        1.0     0.651570     0.518161     0.645546    Uiso  ? O
   O16        1.0     0.866591     0.518161     0.145546    Uiso  ? O
   O17        1.0     0.651570     0.133409     0.145546    Uiso  ? O
   O18        1.0     0.481839     0.348430     0.145546    Uiso  ? O
   O19        1.0     0.466743     0.318237     0.021120    Uiso  ? O
   O20        1.0     0.851494     0.533257     0.021120    Uiso  ? O
   O21        1.0     0.681763     0.148506     0.021120    Uiso  ? O
   O22        1.0     0.466743     0.148506     0.521120    Uiso  ? O
   O23        1.0     0.681763     0.533257     0.521120    Uiso  ? O
   O24        1.0     0.851494     0.318237     0.521120    Uiso  ? O
   O25        1.0     0.533257     0.681763     0.978880    Uiso  ? O
   O26        1.0     0.148506     0.466743     0.978880    Uiso  ? O
   O27        1.0     0.318237     0.851494     0.978880    Uiso  ? O
   O28        1.0     0.533257     0.851494     0.478880    Uiso  ? O
   O29        1.0     0.318237     0.466743     0.478880    Uiso  ? O
   O30        1.0     0.148506     0.681763     0.478880    Uiso  ? O
   O31        1.0     0.133409     0.651570     0.354454    Uiso  ? O
   O32        1.0     0.518161     0.866591     0.354454    Uiso  ? O
   O33        1.0     0.348430     0.481839     0.354454    Uiso  ? O
   O34        1.0     0.133409     0.481839     0.854454    Uiso  ? O
   O35        1.0     0.348430     0.866591     0.854454    Uiso  ? O
   O36        1.0     0.518161     0.651570     0.854454    Uiso  ? O
   O37        1.0     0.025278     0.841081     0.419499    Uiso  ? O
   O38        1.0     0.815803     0.974721     0.419499    Uiso  ? O
   O39        1.0     0.158919     0.184197     0.419499    Uiso  ? O
   O40        1.0     0.025278     0.184197     0.919499    Uiso  ? O
   O41        1.0     0.158919     0.974721     0.919499    Uiso  ? O
   O42        1.0     0.815803     0.841081     0.919499    Uiso  ? O
   O43        1.0     0.974721     0.158919     0.580501    Uiso  ? O
   O44        1.0     0.184197     0.025278     0.580501    Uiso  ? O
   O45        1.0     0.841081     0.815803     0.580501    Uiso  ? O
   O46        1.0     0.974721     0.815803     0.080501    Uiso  ? O
   O47        1.0     0.841081     0.025278     0.080501    Uiso  ? O
   O48        1.0     0.184197     0.158919     0.080501    Uiso  ? O
   O49        1.0     0.691945     0.174415     0.752832    Uiso  ? O
   O50        1.0     0.482470     0.308055     0.752832    Uiso  ? O
   O51        1.0     0.825585     0.517530     0.752832    Uiso  ? O
   O52        1.0     0.691945     0.517530     0.252832    Uiso  ? O
   O53        1.0     0.825585     0.308055     0.252832    Uiso  ? O
   O54        1.0     0.482470     0.174415     0.252832    Uiso  ? O
   O55        1.0     0.641388     0.492252     0.913834    Uiso  ? O
   O56        1.0     0.850864     0.358612     0.913834    Uiso  ? O
   O57        1.0     0.507748     0.149136     0.913834    Uiso  ? O
   O58        1.0     0.641388     0.149136     0.413834    Uiso  ? O
   O59        1.0     0.507748     0.358612     0.413834    Uiso  ? O
   O60        1.0     0.850864     0.492252     0.413834    Uiso  ? O
   O61        1.0     0.358612     0.507748     0.086166    Uiso  ? O
   O62        1.0     0.149136     0.641388     0.086166    Uiso  ? O
   O63        1.0     0.492252     0.850864     0.086166    Uiso  ? O
   O64        1.0     0.358612     0.850864     0.586166    Uiso  ? O
   O65        1.0     0.492252     0.641388     0.586166    Uiso  ? O
   O66        1.0     0.149136     0.507748     0.586166    Uiso  ? O
   O67        1.0     0.308055     0.825585     0.247168    Uiso  ? O
   O68        1.0     0.517530     0.691945     0.247168    Uiso  ? O
   O69        1.0     0.174415     0.482470     0.247168    Uiso  ? O
   O70        1.0     0.308055     0.482470     0.747168    Uiso  ? O
   O71        1.0     0.174415     0.691945     0.747168    Uiso  ? O
   O72        1.0     0.517530     0.825585     0.747168    Uiso  ? O
   Li1        1.0     0.000000     0.000000     0.500000    Uiso  ? Li
   Li2        1.0     0.000000     0.000000     0.000000    Uiso  ? Li
   Li3        1.0     0.666667     0.333333     0.833333    Uiso  ? Li
   Li4        1.0     0.666667     0.333333     0.333333    Uiso  ? Li
   Li5        1.0     0.333333     0.666667     0.166667    Uiso  ? Li
   Li6        1.0     0.333333     0.666667     0.666667    Uiso  ? Li
   Ge1        1.0     0.000000     0.000000     0.358719    Uiso  ? Ge
   Ge2        1.0     0.000000     0.000000     0.858719    Uiso  ? Ge
   Ge3        1.0     0.000000     0.000000     0.641281    Uiso  ? Ge
   Ge4        1.0     0.000000     0.000000     0.141281    Uiso  ? Ge
   Ge5        1.0     0.666667     0.333333     0.692052    Uiso  ? Ge
   Ge6        1.0     0.666667     0.333333     0.192052    Uiso  ? Ge
   Ge7        1.0     0.666667     0.333333     0.974615    Uiso  ? Ge
   Ge8        1.0     0.666667     0.333333     0.474615    Uiso  ? Ge
   Ge9        1.0     0.333333     0.666667     0.025385    Uiso  ? Ge
   Ge10       1.0     0.333333     0.666667     0.525385    Uiso  ? Ge
   Ge11       1.0     0.333333     0.666667     0.307948    Uiso  ? Ge
   Ge12       1.0     0.333333     0.666667     0.807948    Uiso  ? Ge
