
#======================================================================
# CRYSTAL DATA
#----------------------------------------------------------------------
data_VESTA_phase_1

_chemical_name_common                  '                                      '
_cell_length_a                         13.697398
_cell_length_b                         8.264708
_cell_length_c                         14.517815
_cell_angle_alpha                      90.000000
_cell_angle_beta                       96.656952
_cell_angle_gamma                      90.000000
_cell_volume                           1632.408709
_space_group_name_H-M_alt              'P 1'
_space_group_IT_number                 1

loop_
_space_group_symop_operation_xyz
   'x, y, z'

loop_
   _atom_site_label
   _atom_site_occupancy
   _atom_site_fract_x
   _atom_site_fract_y
   _atom_site_fract_z
   _atom_site_adp_type
   _atom_site_U_iso_or_equiv
   _atom_site_type_symbol
   Fe1        1.0     0.498568     0.800484     0.369575    Uiso  ? Fe
   Fe2        1.0     0.498568     0.199516     0.869575    Uiso  ? Fe
   Fe3        1.0     0.998568     0.300484     0.369575    Uiso  ? Fe
   Fe4        1.0     0.998568     0.699516     0.869575    Uiso  ? Fe
   Fe5        1.0     0.850023     0.826981     0.539971    Uiso  ? Fe
   Fe6        1.0     0.850023     0.173019     0.039971    Uiso  ? Fe
   Fe7        1.0     0.350023     0.326981     0.539971    Uiso  ? Fe
   Fe8        1.0     0.350023     0.673019     0.039971    Uiso  ? Fe
   Fe9        1.0     0.701137     0.306473     0.709751    Uiso  ? Fe
   Fe10       1.0     0.701137     0.693527     0.209751    Uiso  ? Fe
   Fe11       1.0     0.201137     0.806473     0.709751    Uiso  ? Fe
   Fe12       1.0     0.201137     0.193527     0.209751    Uiso  ? Fe
   V1         1.0     0.423290     0.022697     0.176704    Uiso  ? V
   V2         1.0     0.423290     0.977303     0.676704    Uiso  ? V
   V3         1.0     0.923290     0.522697     0.176704    Uiso  ? V
   V4         1.0     0.923290     0.477303     0.676704    Uiso  ? V
   V5         1.0     0.704137     0.962488     0.356174    Uiso  ? V
   V6         1.0     0.704137     0.037512     0.856174    Uiso  ? V
   V7         1.0     0.204137     0.462488     0.356174    Uiso  ? V
   V8         1.0     0.204137     0.537512     0.856174    Uiso  ? V
   V9         1.0     0.574858     0.457189     0.515156    Uiso  ? V
   V10        1.0     0.574858     0.542811     0.015156    Uiso  ? V
   V11        1.0     0.074858     0.957189     0.515156    Uiso  ? V
   V12        1.0     0.074858     0.042811     0.015156    Uiso  ? V
   V13        1.0     0.627679     0.957780     0.567242    Uiso  ? V
   V14        1.0     0.627679     0.042220     0.067242    Uiso  ? V
   V15        1.0     0.127679     0.457780     0.567242    Uiso  ? V
   V16        1.0     0.127679     0.542220     0.067242    Uiso  ? V
   V17        1.0     0.274494     0.974054     0.404248    Uiso  ? V
   V18        1.0     0.274494     0.025946     0.904248    Uiso  ? V
   V19        1.0     0.774494     0.474054     0.404248    Uiso  ? V
   V20        1.0     0.774494     0.525946     0.904248    Uiso  ? V
   V21        1.0     0.404929     0.460707     0.240831    Uiso  ? V
   V22        1.0     0.404929     0.539293     0.740831    Uiso  ? V
   V23        1.0     0.904929     0.960707     0.240831    Uiso  ? V
   V24        1.0     0.904929     0.039293     0.740831    Uiso  ? V
   O1         1.0     0.479603     0.321425     0.486384    Uiso  ? O
   O2         1.0     0.479603     0.678575     0.986384    Uiso  ? O
   O3         1.0     0.979603     0.821425     0.486384    Uiso  ? O
   O4         1.0     0.979603     0.178575     0.986384    Uiso  ? O
   O5         1.0     0.324086     0.149391     0.147144    Uiso  ? O
   O6         1.0     0.324086     0.850609     0.647144    Uiso  ? O
   O7         1.0     0.824086     0.649391     0.147144    Uiso  ? O
   O8         1.0     0.824086     0.350609     0.647144    Uiso  ? O
   O9         1.0     0.236788     0.998840     0.287583    Uiso  ? O
   O10        1.0     0.236788     0.001160     0.787583    Uiso  ? O
   O11        1.0     0.736788     0.498840     0.287583    Uiso  ? O
   O12        1.0     0.736788     0.501160     0.787583    Uiso  ? O
   O13        1.0     0.393064     0.486474     0.120788    Uiso  ? O
   O14        1.0     0.393064     0.513525     0.620788    Uiso  ? O
   O15        1.0     0.893064     0.986475     0.120788    Uiso  ? O
   O16        1.0     0.893064     0.013526     0.620788    Uiso  ? O
   O17        1.0     0.424651     0.642073     0.295225    Uiso  ? O
   O18        1.0     0.424651     0.357927     0.795226    Uiso  ? O
   O19        1.0     0.924651     0.142073     0.295225    Uiso  ? O
   O20        1.0     0.924651     0.857927     0.795226    Uiso  ? O
   O21        1.0     0.296859     0.160727     0.449028    Uiso  ? O
   O22        1.0     0.296859     0.839273     0.949028    Uiso  ? O
   O23        1.0     0.796859     0.660727     0.449028    Uiso  ? O
   O24        1.0     0.796859     0.339273     0.949028    Uiso  ? O
   O25        1.0     0.525983     0.892761     0.622496    Uiso  ? O
   O26        1.0     0.525983     0.107239     0.122496    Uiso  ? O
   O27        1.0     0.025983     0.392761     0.622496    Uiso  ? O
   O28        1.0     0.025983     0.607239     0.122496    Uiso  ? O
   O29        1.0     0.622488     0.790121     0.304965    Uiso  ? O
   O30        1.0     0.622488     0.209879     0.804965    Uiso  ? O
   O31        1.0     0.122488     0.290121     0.304965    Uiso  ? O
   O32        1.0     0.122488     0.709879     0.804965    Uiso  ? O
   O33        1.0     0.594054     0.969413     0.442974    Uiso  ? O
   O34        1.0     0.594054     0.030587     0.942974    Uiso  ? O
   O35        1.0     0.094054     0.469413     0.442974    Uiso  ? O
   O36        1.0     0.094054     0.530587     0.942974    Uiso  ? O
   O37        1.0     0.676503     0.138563     0.306620    Uiso  ? O
   O38        1.0     0.676503     0.861437     0.806620    Uiso  ? O
   O39        1.0     0.176503     0.638563     0.306620    Uiso  ? O
   O40        1.0     0.176503     0.361437     0.806620    Uiso  ? O
   O41        1.0     0.664495     0.140418     0.610726    Uiso  ? O
   O42        1.0     0.664495     0.859582     0.110726    Uiso  ? O
   O43        1.0     0.164495     0.640418     0.610726    Uiso  ? O
   O44        1.0     0.164495     0.359582     0.110726    Uiso  ? O
   O45        1.0     0.674518     0.380954     0.456440    Uiso  ? O
   O46        1.0     0.674518     0.619046     0.956440    Uiso  ? O
   O47        1.0     0.174518     0.880954     0.456440    Uiso  ? O
   O48        1.0     0.174518     0.119046     0.956440    Uiso  ? O
   O49        1.0     0.291740     0.371331     0.276809    Uiso  ? O
   O50        1.0     0.291740     0.628669     0.776809    Uiso  ? O
   O51        1.0     0.791740     0.871331     0.276809    Uiso  ? O
   O52        1.0     0.791740     0.128669     0.776809    Uiso  ? O
   O53        1.0     0.501055     0.339235     0.272319    Uiso  ? O
   O54        1.0     0.501055     0.660765     0.772319    Uiso  ? O
   O55        1.0     0.001055     0.839235     0.272319    Uiso  ? O
   O56        1.0     0.001055     0.160765     0.772319    Uiso  ? O
   O57        1.0     0.456261     0.002133     0.294654    Uiso  ? O
   O58        1.0     0.456261     0.997867     0.794654    Uiso  ? O
   O59        1.0     0.956261     0.502133     0.294654    Uiso  ? O
   O60        1.0     0.956261     0.497867     0.794654    Uiso  ? O
   O61        1.0     0.541245     0.643019     0.472729    Uiso  ? O
   O62        1.0     0.541245     0.356981     0.972729    Uiso  ? O
   O63        1.0     0.041245     0.143019     0.472729    Uiso  ? O
   O64        1.0     0.041245     0.856981     0.972729    Uiso  ? O
   O65        1.0     0.398150     0.839283     0.130817    Uiso  ? O
   O66        1.0     0.398150     0.160717     0.630817    Uiso  ? O
   O67        1.0     0.898150     0.339283     0.130817    Uiso  ? O
   O68        1.0     0.898150     0.660717     0.630817    Uiso  ? O
   O69        1.0     0.791048     0.999595     0.452507    Uiso  ? O
   O70        1.0     0.791048     0.000405     0.952507    Uiso  ? O
   O71        1.0     0.291048     0.499595     0.452507    Uiso  ? O
   O72        1.0     0.291048     0.500405     0.952507    Uiso  ? O
   O73        1.0     0.615952     0.467057     0.633274    Uiso  ? O
   O74        1.0     0.615952     0.532943     0.133274    Uiso  ? O
   O75        1.0     0.115952     0.967057     0.633274    Uiso  ? O
   O76        1.0     0.115952     0.032943     0.133274    Uiso  ? O
   O77        1.0     0.375849     0.851052     0.433202    Uiso  ? O
   O78        1.0     0.375849     0.148948     0.933202    Uiso  ? O
   O79        1.0     0.875849     0.351052     0.433202    Uiso  ? O
   O80        1.0     0.875849     0.648948     0.933202    Uiso  ? O
   O81        1.0     0.718301     0.821222     0.595312    Uiso  ? O
   O82        1.0     0.718301     0.178778     0.095312    Uiso  ? O
   O83        1.0     0.218301     0.321222     0.595312    Uiso  ? O
   O84        1.0     0.218301     0.678778     0.095312    Uiso  ? O
   Li1        1.0     0.634758     0.669354     0.716672    Uiso  ? Li
   Li2        1.0     0.634758     0.330646     0.216672    Uiso  ? Li
   Li3        1.0     0.134758     0.169354     0.716672    Uiso  ? Li
   Li4        1.0     0.134758     0.830646     0.216672    Uiso  ? Li
   Li5        1.0     0.337119     0.305646     0.033876    Uiso  ? Li
   Li6        1.0     0.337119     0.694354     0.533876    Uiso  ? Li
   Li7        1.0     0.837119     0.805646     0.033876    Uiso  ? Li
   Li8        1.0     0.837119     0.194354     0.533876    Uiso  ? Li
   Li9        1.0     0.521747     0.183216     0.374523    Uiso  ? Li
   Li10       1.0     0.521747     0.816784     0.874523    Uiso  ? Li
   Li11       1.0     0.021747     0.683216     0.374523    Uiso  ? Li
   Li12       1.0     0.021747     0.316784     0.874523    Uiso  ? Li
