
#======================================================================
# CRYSTAL DATA
#----------------------------------------------------------------------
data_VESTA_phase_1

_chemical_name_common                  'XCrySDen XSF file'
_cell_length_a                         8.260183
_cell_length_b                         8.260183
_cell_length_c                         22.136234
_cell_angle_alpha                      90.000000
_cell_angle_beta                       90.000000
_cell_angle_gamma                      120.000000
_cell_volume                           1308.018081
_space_group_name_H-M_alt              'P 1'
_space_group_IT_number                 1

loop_
_space_group_symop_operation_xyz
   'x, y, z'

loop_
   _atom_site_label
   _atom_site_occupancy
   _atom_site_fract_x
   _atom_site_fract_y
   _atom_site_fract_z
   _atom_site_adp_type
   _atom_site_U_iso_or_equiv
   _atom_site_type_symbol
   Li1        1.0     0.000000     0.000000     0.500000    Uiso  ? Li
   Li2        1.0     0.000000     0.000000     0.000000    Uiso  ? Li
   Li3        1.0     0.666667     0.333333     0.833333    Uiso  ? Li
   Li4        1.0     0.666667     0.333333     0.333333    Uiso  ? Li
   Li5        1.0     0.333333     0.666667     0.166667    Uiso  ? Li
   Li6        1.0     0.333333     0.666667     0.666667    Uiso  ? Li
   Ti1        1.0     0.000000     0.000000     0.362311    Uiso  ? Ti
   Ti2        1.0     0.000000     0.000000     0.862311    Uiso  ? Ti
   Ti3        1.0     0.000000     0.000000     0.637689    Uiso  ? Ti
   Ti4        1.0     0.000000     0.000000     0.137689    Uiso  ? Ti
   Ti5        1.0     0.666667     0.333333     0.695665    Uiso  ? Ti
   Ti6        1.0     0.666667     0.333333     0.195665    Uiso  ? Ti
   Ti7        1.0     0.666667     0.333333     0.970985    Uiso  ? Ti
   Ti8        1.0     0.666667     0.333333     0.470985    Uiso  ? Ti
   Ti9        1.0     0.333333     0.666667     0.029015    Uiso  ? Ti
   Ti10       1.0     0.333333     0.666667     0.529015    Uiso  ? Ti
   Ti11       1.0     0.333333     0.666667     0.304335    Uiso  ? Ti
   Ti12       1.0     0.333333     0.666667     0.804335    Uiso  ? Ti
   P1         1.0     0.707784     0.707784     0.750000    Uiso  ? P
   P2         1.0    -0.000000     0.292216     0.750000    Uiso  ? P
   P3         1.0     0.292216     0.000000     0.750000    Uiso  ? P
   P4         1.0     0.707784    -0.000000     0.250000    Uiso  ? P
   P5         1.0     0.292216     0.292216     0.250000    Uiso  ? P
   P6         1.0     0.000000     0.707784     0.250000    Uiso  ? P
   P7         1.0     0.374431     0.041131     0.083346    Uiso  ? P
   P8         1.0     0.666700     0.625569     0.083346    Uiso  ? P
   P9         1.0     0.958869     0.333300     0.083346    Uiso  ? P
   P10        1.0     0.374431     0.333300     0.583346    Uiso  ? P
   P11        1.0     0.958869     0.625569     0.583346    Uiso  ? P
   P12        1.0     0.666700     0.041131     0.583346    Uiso  ? P
   P13        1.0     0.041131     0.374431     0.416654    Uiso  ? P
   P14        1.0     0.333300     0.958869     0.416654    Uiso  ? P
   P15        1.0     0.625569     0.666700     0.416654    Uiso  ? P
   P16        1.0     0.041131     0.666700     0.916654    Uiso  ? P
   P17        1.0     0.625569     0.958869     0.916654    Uiso  ? P
   P18        1.0     0.333300     0.374431     0.916654    Uiso  ? P
   O1         1.0     0.894986     0.804877     0.813733    Uiso  ? O
   O2         1.0     0.909891     0.105014     0.813733    Uiso  ? O
   O3         1.0     0.195123     0.090109     0.813733    Uiso  ? O
   O4         1.0     0.894986     0.090109     0.313733    Uiso  ? O
   O5         1.0     0.195123     0.105014     0.313733    Uiso  ? O
   O6         1.0     0.909891     0.804877     0.313733    Uiso  ? O
   O7         1.0     0.105014     0.195123     0.186267    Uiso  ? O
   O8         1.0     0.090109     0.894986     0.186267    Uiso  ? O
   O9         1.0     0.804877     0.909891     0.186267    Uiso  ? O
   O10        1.0     0.105014     0.909891     0.686267    Uiso  ? O
   O11        1.0     0.804877     0.894986     0.686267    Uiso  ? O
   O12        1.0     0.090109     0.195123     0.686267    Uiso  ? O
   O13        1.0     0.561624     0.138300     0.147073    Uiso  ? O
   O14        1.0     0.576676     0.438376     0.147073    Uiso  ? O
   O15        1.0     0.861700     0.423324     0.147073    Uiso  ? O
   O16        1.0     0.561624     0.423324     0.647073    Uiso  ? O
   O17        1.0     0.861700     0.438376     0.647073    Uiso  ? O
   O18        1.0     0.576676     0.138300     0.647073    Uiso  ? O
   O19        1.0     0.771632     0.528392     0.519587    Uiso  ? O
   O20        1.0     0.756761     0.228368     0.519587    Uiso  ? O
   O21        1.0     0.471608     0.243239     0.519587    Uiso  ? O
   O22        1.0     0.771632     0.243239     1.019587    Uiso  ? O
   O23        1.0     0.471608     0.228368     1.019587    Uiso  ? O
   O24        1.0     0.756761     0.528392     1.019587    Uiso  ? O
   O25        1.0     0.228368     0.471608     0.480413    Uiso  ? O
   O26        1.0     0.243239     0.771632     0.480413    Uiso  ? O
   O27        1.0     0.528392     0.756761     0.480413    Uiso  ? O
   O28        1.0     0.228368     0.756761    -0.019587    Uiso  ? O
   O29        1.0     0.528392     0.771632    -0.019587    Uiso  ? O
   O30        1.0     0.243239     0.471608    -0.019587    Uiso  ? O
   O31        1.0     0.438376     0.861700     0.852927    Uiso  ? O
   O32        1.0     0.423324     0.561624     0.852927    Uiso  ? O
   O33        1.0     0.138300     0.576676     0.852927    Uiso  ? O
   O34        1.0     0.438376     0.576676     0.352927    Uiso  ? O
   O35        1.0     0.138300     0.561624     0.352927    Uiso  ? O
   O36        1.0     0.423324     0.861700     0.352927    Uiso  ? O
   O37        1.0     0.200914     0.143972     0.575809    Uiso  ? O
   O38        1.0     0.943058     0.799086     0.575809    Uiso  ? O
   O39        1.0     0.856028     0.056942     0.575809    Uiso  ? O
   O40        1.0     0.200914     0.056942     0.075809    Uiso  ? O
   O41        1.0     0.856028     0.799086     0.075809    Uiso  ? O
   O42        1.0     0.943058     0.143972     0.075809    Uiso  ? O
   O43        1.0     0.799086     0.856028     0.424191    Uiso  ? O
   O44        1.0     0.056942     0.200914     0.424191    Uiso  ? O
   O45        1.0     0.143972     0.943058     0.424191    Uiso  ? O
   O46        1.0     0.799086     0.943058     0.924191    Uiso  ? O
   O47        1.0     0.143972     0.200914     0.924191    Uiso  ? O
   O48        1.0     0.056942     0.856028     0.924191    Uiso  ? O
   O49        1.0     0.867665     0.477313     0.909136    Uiso  ? O
   O50        1.0     0.609648     0.132335     0.909136    Uiso  ? O
   O51        1.0     0.522687     0.390352     0.909136    Uiso  ? O
   O52        1.0     0.867665     0.390352     0.409136    Uiso  ? O
   O53        1.0     0.522687     0.132335     0.409136    Uiso  ? O
   O54        1.0     0.609648     0.477313     0.409136    Uiso  ? O
   O55        1.0     0.465693     0.189363     0.757548    Uiso  ? O
   O56        1.0     0.723670     0.534307     0.757548    Uiso  ? O
   O57        1.0     0.810637     0.276330     0.757548    Uiso  ? O
   O58        1.0     0.465693     0.276330     0.257548    Uiso  ? O
   O59        1.0     0.810637     0.534307     0.257548    Uiso  ? O
   O60        1.0     0.723670     0.189363     0.257548    Uiso  ? O
   O61        1.0     0.534307     0.810637     0.242452    Uiso  ? O
   O62        1.0     0.276330     0.465693     0.242452    Uiso  ? O
   O63        1.0     0.189363     0.723670     0.242452    Uiso  ? O
   O64        1.0     0.534307     0.723670     0.742452    Uiso  ? O
   O65        1.0     0.189363     0.465693     0.742452    Uiso  ? O
   O66        1.0     0.276330     0.810637     0.742452    Uiso  ? O
   O67        1.0     0.132335     0.522687     0.090864    Uiso  ? O
   O68        1.0     0.390352     0.867665     0.090864    Uiso  ? O
   O69        1.0     0.477313     0.609648     0.090864    Uiso  ? O
   O70        1.0     0.132335     0.609648     0.590864    Uiso  ? O
   O71        1.0     0.477313     0.867665     0.590864    Uiso  ? O
   O72        1.0     0.390352     0.522687     0.590864    Uiso  ? O
