
#======================================================================
# CRYSTAL DATA
#----------------------------------------------------------------------
data_VESTA_phase_1

_chemical_name_common                  'XCrySDen XSF file'
_cell_length_a                         8.932642
_cell_length_b                         9.066261
_cell_length_c                         12.558980
_cell_angle_alpha                      90.000000
_cell_angle_beta                       90.695885
_cell_angle_gamma                      90.000000
_cell_volume                           1017.022345
_space_group_name_H-M_alt              'P 1'
_space_group_IT_number                 1

loop_
_space_group_symop_operation_xyz
   'x, y, z'

loop_
   _atom_site_label
   _atom_site_occupancy
   _atom_site_fract_x
   _atom_site_fract_y
   _atom_site_fract_z
   _atom_site_adp_type
   _atom_site_U_iso_or_equiv
   _atom_site_type_symbol
   Li1        1.0     0.207061     0.721900     0.177697    Uiso  ? Li
   Li2        1.0     0.707061     0.778100     0.677697    Uiso  ? Li
   Li3        1.0     0.792939     0.278100     0.822303    Uiso  ? Li
   Li4        1.0     0.292939     0.221900     0.322303    Uiso  ? Li
   Zr1        1.0     0.745500     0.956056     0.890022    Uiso  ? Zr
   Zr2        1.0     0.245500     0.543944     0.390022    Uiso  ? Zr
   Zr3        1.0     0.254500     0.043944     0.109978    Uiso  ? Zr
   Zr4        1.0     0.754500     0.456056     0.609978    Uiso  ? Zr
   Zr5        1.0     0.750678     0.526705     0.120986    Uiso  ? Zr
   Zr6        1.0     0.250678     0.973295     0.620986    Uiso  ? Zr
   Zr7        1.0     0.249322     0.473295     0.879014    Uiso  ? Zr
   Zr8        1.0     0.749322     0.026705     0.379014    Uiso  ? Zr
   P1         1.0     0.885884     0.600820     0.855199    Uiso  ? P
   P2         1.0     0.385884     0.899180     0.355199    Uiso  ? P
   P3         1.0     0.114116     0.399180     0.144801    Uiso  ? P
   P4         1.0     0.614116     0.100820     0.644801    Uiso  ? P
   P5         1.0     0.901080     0.878987     0.146629    Uiso  ? P
   P6         1.0     0.401080     0.621013     0.646629    Uiso  ? P
   P7         1.0     0.098920     0.121013     0.853371    Uiso  ? P
   P8         1.0     0.598920     0.378987     0.353371    Uiso  ? P
   P9         1.0     0.465208     0.749805     0.010590    Uiso  ? P
   P10        1.0     0.965208     0.750195     0.510590    Uiso  ? P
   P11        1.0     0.534792     0.250195     0.989410    Uiso  ? P
   P12        1.0     0.034792     0.249805     0.489410    Uiso  ? P
   O1         1.0     0.848622     0.919822     0.031845    Uiso  ? O
   O2         1.0     0.348622     0.580178     0.531845    Uiso  ? O
   O3         1.0     0.151378     0.080178     0.968155    Uiso  ? O
   O4         1.0     0.651378     0.419822     0.468155    Uiso  ? O
   O5         1.0     0.822180     0.755314     0.821411    Uiso  ? O
   O6         1.0     0.322180     0.744686     0.321411    Uiso  ? O
   O7         1.0     0.177820     0.244686     0.178589    Uiso  ? O
   O8         1.0     0.677820     0.255314     0.678589    Uiso  ? O
   O9         1.0     0.553219     0.860183     0.940985    Uiso  ? O
   O10        1.0     0.053219     0.639817     0.440985    Uiso  ? O
   O11        1.0     0.446781     0.139817     0.059015    Uiso  ? O
   O12        1.0     0.946781     0.360183     0.559015    Uiso  ? O
   O13        1.0     0.926727     0.094796     0.843925    Uiso  ? O
   O14        1.0     0.426727     0.405204     0.343925    Uiso  ? O
   O15        1.0     0.073273     0.905204     0.156075    Uiso  ? O
   O16        1.0     0.573273     0.594796     0.656075    Uiso  ? O
   O17        1.0     0.669370     0.983778     0.728325    Uiso  ? O
   O18        1.0     0.169370     0.516222     0.228325    Uiso  ? O
   O19        1.0     0.330630     0.016222     0.271675    Uiso  ? O
   O20        1.0     0.830630     0.483778     0.771675    Uiso  ? O
   O21        1.0     0.653507     0.165033     0.922424    Uiso  ? O
   O22        1.0     0.153507     0.334967     0.422424    Uiso  ? O
   O23        1.0     0.346493     0.834967     0.077576    Uiso  ? O
   O24        1.0     0.846493     0.665033     0.577576    Uiso  ? O
   O25        1.0     0.823354     0.556986     0.963914    Uiso  ? O
   O26        1.0     0.323354     0.943014     0.463914    Uiso  ? O
   O27        1.0     0.176646     0.443014     0.036086    Uiso  ? O
   O28        1.0     0.676646     0.056986     0.536086    Uiso  ? O
   O29        1.0     0.873704     0.713686     0.167496    Uiso  ? O
   O30        1.0     0.373704     0.786314     0.667496    Uiso  ? O
   O31        1.0     0.126296     0.286314     0.832504    Uiso  ? O
   O32        1.0     0.626296     0.213686     0.332504    Uiso  ? O
   O33        1.0     0.570865     0.669057     0.088346    Uiso  ? O
   O34        1.0     0.070865     0.830943     0.588346    Uiso  ? O
   O35        1.0     0.429135     0.330943     0.911654    Uiso  ? O
   O36        1.0     0.929135     0.169057     0.411654    Uiso  ? O
   O37        1.0     0.942105     0.394850     0.143345    Uiso  ? O
   O38        1.0     0.442105     0.105150     0.643345    Uiso  ? O
   O39        1.0     0.057895     0.605150     0.856655    Uiso  ? O
   O40        1.0     0.557895     0.894850     0.356655    Uiso  ? O
   O41        1.0     0.681239     0.478061     0.273866    Uiso  ? O
   O42        1.0     0.181239     0.021939     0.773866    Uiso  ? O
   O43        1.0     0.318761     0.521939     0.726134    Uiso  ? O
   O44        1.0     0.818761     0.978061     0.226134    Uiso  ? O
   O45        1.0     0.619662     0.356723     0.063474    Uiso  ? O
   O46        1.0     0.119662     0.143277     0.563474    Uiso  ? O
   O47        1.0     0.380338     0.643277     0.936526    Uiso  ? O
   O48        1.0     0.880338     0.856723     0.436526    Uiso  ? O
