
#======================================================================
# CRYSTAL DATA
#----------------------------------------------------------------------
data_VESTA_phase_1

_chemical_name_common                  'XCrySDen XSF file'
_cell_length_a                         8.812768
_cell_length_b                         8.945200
_cell_length_c                         12.374997
_cell_angle_alpha                      90.000000
_cell_angle_beta                       90.801018
_cell_angle_gamma                      90.000000
_cell_volume                           975.450092
_space_group_name_H-M_alt              'P 1'
_space_group_IT_number                 1

loop_
_space_group_symop_operation_xyz
   'x, y, z'

loop_
   _atom_site_label
   _atom_site_occupancy
   _atom_site_fract_x
   _atom_site_fract_y
   _atom_site_fract_z
   _atom_site_adp_type
   _atom_site_U_iso_or_equiv
   _atom_site_type_symbol
   Li1        1.0     0.200825     0.721289     0.175670    Uiso  ? Li
   Li2        1.0     0.700825     0.778711     0.675670    Uiso  ? Li
   Li3        1.0     0.799175     0.278711     0.824330    Uiso  ? Li
   Li4        1.0     0.299175     0.221289     0.324330    Uiso  ? Li
   Zr1        1.0     0.745474     0.955436     0.888429    Uiso  ? Zr
   Zr2        1.0     0.245474     0.544564     0.388429    Uiso  ? Zr
   Zr3        1.0     0.254526     0.044564     0.111571    Uiso  ? Zr
   Zr4        1.0     0.754526     0.455436     0.611571    Uiso  ? Zr
   Zr5        1.0     0.750351     0.527834     0.123615    Uiso  ? Zr
   Zr6        1.0     0.250351     0.972166     0.623615    Uiso  ? Zr
   Zr7        1.0     0.249649     0.472166     0.876385    Uiso  ? Zr
   Zr8        1.0     0.749649     0.027834     0.376385    Uiso  ? Zr
   P1         1.0     0.889415     0.603495     0.855443    Uiso  ? P
   P2         1.0     0.389415     0.896505     0.355443    Uiso  ? P
   P3         1.0     0.110585     0.396505     0.144557    Uiso  ? P
   P4         1.0     0.610585     0.103495     0.644557    Uiso  ? P
   P5         1.0     0.901363     0.878987     0.147153    Uiso  ? P
   P6         1.0     0.401363     0.621013     0.647153    Uiso  ? P
   P7         1.0     0.098637     0.121013     0.852847    Uiso  ? P
   P8         1.0     0.598637     0.378987     0.352847    Uiso  ? P
   P9         1.0     0.464192     0.750185     0.010300    Uiso  ? P
   P10        1.0     0.964192     0.749815     0.510300    Uiso  ? P
   P11        1.0     0.535808     0.249815     0.989700    Uiso  ? P
   P12        1.0     0.035808     0.250185     0.489700    Uiso  ? P
   O1         1.0     0.857058     0.910871     0.027868    Uiso  ? O
   O2         1.0     0.357058     0.589129     0.527868    Uiso  ? O
   O3         1.0     0.142942     0.089129     0.972132    Uiso  ? O
   O4         1.0     0.642942     0.410871     0.472132    Uiso  ? O
   O5         1.0     0.819946     0.755431     0.817361    Uiso  ? O
   O6         1.0     0.319946     0.744569     0.317361    Uiso  ? O
   O7         1.0     0.180054     0.244569     0.182639    Uiso  ? O
   O8         1.0     0.680054     0.255431     0.682639    Uiso  ? O
   O9         1.0     0.549905     0.866029     0.941756    Uiso  ? O
   O10        1.0     0.049905     0.633971     0.441756    Uiso  ? O
   O11        1.0     0.450095     0.133971     0.058244    Uiso  ? O
   O12        1.0     0.950095     0.366029     0.558244    Uiso  ? O
   O13        1.0     0.926344     0.091332     0.836450    Uiso  ? O
   O14        1.0     0.426344     0.408668     0.336450    Uiso  ? O
   O15        1.0     0.073656     0.908668     0.163550    Uiso  ? O
   O16        1.0     0.573656     0.591332     0.663550    Uiso  ? O
   O17        1.0     0.661487     0.981369     0.727389    Uiso  ? O
   O18        1.0     0.161487     0.518631     0.227389    Uiso  ? O
   O19        1.0     0.338513     0.018631     0.272611    Uiso  ? O
   O20        1.0     0.838513     0.481369     0.772611    Uiso  ? O
   O21        1.0     0.663686     0.169730     0.925973    Uiso  ? O
   O22        1.0     0.163686     0.330270     0.425973    Uiso  ? O
   O23        1.0     0.336314     0.830270     0.074027    Uiso  ? O
   O24        1.0     0.836314     0.669730     0.574027    Uiso  ? O
   O25        1.0     0.826181     0.560015     0.965681    Uiso  ? O
   O26        1.0     0.326181     0.939985     0.465681    Uiso  ? O
   O27        1.0     0.173819     0.439985     0.034319    Uiso  ? O
   O28        1.0     0.673819     0.060015     0.534319    Uiso  ? O
   O29        1.0     0.876157     0.712953     0.173566    Uiso  ? O
   O30        1.0     0.376157     0.787047     0.673566    Uiso  ? O
   O31        1.0     0.123843     0.287047     0.826434    Uiso  ? O
   O32        1.0     0.623843     0.212953     0.326434    Uiso  ? O
   O33        1.0     0.571201     0.675347     0.092476    Uiso  ? O
   O34        1.0     0.071201     0.824653     0.592476    Uiso  ? O
   O35        1.0     0.428799     0.324653     0.907524    Uiso  ? O
   O36        1.0     0.928799     0.175347     0.407524    Uiso  ? O
   O37        1.0     0.937090     0.384763     0.142209    Uiso  ? O
   O38        1.0     0.437090     0.115237     0.642209    Uiso  ? O
   O39        1.0     0.062910     0.615237     0.857791    Uiso  ? O
   O40        1.0     0.562910     0.884763     0.357791    Uiso  ? O
   O41        1.0     0.690006     0.483646     0.280570    Uiso  ? O
   O42        1.0     0.190006     0.016354     0.780570    Uiso  ? O
   O43        1.0     0.309994     0.516354     0.719430    Uiso  ? O
   O44        1.0     0.809994     0.983646     0.219430    Uiso  ? O
   O45        1.0     0.610304     0.361932     0.067419    Uiso  ? O
   O46        1.0     0.110304     0.138068     0.567419    Uiso  ? O
   O47        1.0     0.389696     0.638068     0.932581    Uiso  ? O
   O48        1.0     0.889696     0.861932     0.432581    Uiso  ? O
