
#======================================================================
# CRYSTAL DATA
#----------------------------------------------------------------------
data_VESTA_phase_1

_chemical_name_common                  '"Fe12 V24 O84 Li20"'
_cell_length_a                         13.875530
_cell_length_b                         8.376018
_cell_length_c                         14.403455
_cell_angle_alpha                      90.000000
_cell_angle_beta                       95.873993
_cell_angle_gamma                      90.000000
_cell_volume                           1665.204269
_space_group_name_H-M_alt              'C c'
_space_group_IT_number                 9

loop_
_space_group_symop_operation_xyz
   'x, y, z'
   'x, -y, z+1/2'
   'x+1/2, y+1/2, z'
   'x+1/2, -y+1/2, z+1/2'

loop_
   _atom_site_label
   _atom_site_occupancy
   _atom_site_fract_x
   _atom_site_fract_y
   _atom_site_fract_z
   _atom_site_adp_type
   _atom_site_U_iso_or_equiv
   _atom_site_type_symbol
   Fe1        1.0     0.499788     0.805844     0.371411    Uiso  ? Fe
   Fe2        1.0     0.847401     0.813623     0.537001    Uiso  ? Fe
   Fe3        1.0     0.718368     0.316644     0.712296    Uiso  ? Fe
   V1         1.0     0.436445     0.037076     0.172307    Uiso  ? V
   V2         1.0     0.693454     0.961611     0.352556    Uiso  ? V
   V3         1.0     0.573684     0.460875     0.510949    Uiso  ? V
   V4         1.0     0.647971     0.959028     0.562535    Uiso  ? V
   V5         1.0     0.275342     0.963397     0.401432    Uiso  ? V
   V6         1.0     0.404418     0.459987     0.241960    Uiso  ? V
   O1         1.0     0.484471     0.321820     0.485412    Uiso  ? O
   O2         1.0     0.339017     0.155817     0.140111    Uiso  ? O
   O3         1.0     0.243585     0.965581     0.281918    Uiso  ? O
   O4         1.0     0.394048     0.489467     0.121706    Uiso  ? O
   O5         1.0     0.423483     0.652114     0.286698    Uiso  ? O
   O6         1.0     0.296117     0.149023     0.440472    Uiso  ? O
   O7         1.0     0.538710     0.887667     0.623178    Uiso  ? O
   O8         1.0     0.615304     0.794544     0.298097    Uiso  ? O
   O9         1.0     0.586505     0.971374     0.437831    Uiso  ? O
   O10        1.0     0.675847     0.138805     0.301318    Uiso  ? O
   O11        1.0     0.663821     0.142887     0.609485    Uiso  ? O
   O12        1.0     0.674192     0.383954     0.454199    Uiso  ? O
   O13        1.0     0.295672     0.378256     0.283013    Uiso  ? O
   O14        1.0     0.500953     0.343417     0.274329    Uiso  ? O
   O15        1.0     0.453638     0.008974     0.292419    Uiso  ? O
   O16        1.0     0.540546     0.645429     0.468533    Uiso  ? O
   O17        1.0     0.409699     0.843372     0.130213    Uiso  ? O
   O18        1.0     0.772786     0.986211     0.463913    Uiso  ? O
   O19        1.0     0.607326     0.465519     0.630026    Uiso  ? O
   O20        1.0     0.371154     0.837094     0.430807    Uiso  ? O
   O21        1.0     0.726070     0.804987     0.609115    Uiso  ? O
   Li1        1.0     0.614067     0.677923     0.703413    Uiso  ? Li
   Li2        1.0     0.339324     0.318093     0.032487    Uiso  ? Li
   Li3        1.0     0.520139     0.178808     0.375763    Uiso  ? Li
   Li4        1.0     0.301584     0.767909     0.229941    Uiso  ? Li
   Li5        1.0     0.034253     0.233632     0.166498    Uiso  ? Li
