
#======================================================================
# CRYSTAL DATA
#----------------------------------------------------------------------
data_VESTA_phase_1

_chemical_name_common                  'XCrySDen XSF file'
_cell_length_a                         8.520000
_cell_length_b                         8.520000
_cell_length_c                         8.521456
_cell_angle_alpha                      60.005653
_cell_angle_beta                       60.005653
_cell_angle_gamma                      60.000004
_cell_volume                           437.436633
_space_group_name_H-M_alt              'P 1'
_space_group_IT_number                 1

loop_
_space_group_symop_operation_xyz
   'x, y, z'

loop_
   _atom_site_label
   _atom_site_occupancy
   _atom_site_fract_x
   _atom_site_fract_y
   _atom_site_fract_z
   _atom_site_adp_type
   _atom_site_U_iso_or_equiv
   _atom_site_type_symbol
   Li1        1.0     0.500000     0.500000     0.500000    Uiso  ? Li
   Li2        1.0     0.000000     0.000000     0.000000    Uiso  ? Li
   O1         1.0     0.111400     0.671800     0.457200    Uiso  ? O
   O2         1.0     0.759600     0.111400     0.457200    Uiso  ? O
   O3         1.0     0.671800     0.759600     0.457200    Uiso  ? O
   O4         1.0     0.171800     0.611400     0.957200    Uiso  ? O
   O5         1.0     0.259600     0.171800     0.957200    Uiso  ? O
   O6         1.0     0.611400     0.259600     0.957200    Uiso  ? O
   O7         1.0     0.888600     0.328200     0.542800    Uiso  ? O
   O8         1.0     0.240400     0.888600     0.542800    Uiso  ? O
   O9         1.0     0.328200     0.240400     0.542800    Uiso  ? O
   O10        1.0     0.828200     0.388600     0.042800    Uiso  ? O
   O11        1.0     0.740400     0.828200     0.042800    Uiso  ? O
   O12        1.0     0.388600     0.740400     0.042800    Uiso  ? O
   O13        1.0     0.413900     0.570400     0.254900    Uiso  ? O
   O14        1.0     0.760800     0.413900     0.254900    Uiso  ? O
   O15        1.0     0.570400     0.760800     0.254900    Uiso  ? O
   O16        1.0     0.070400     0.913900     0.754900    Uiso  ? O
   O17        1.0     0.260800     0.070400     0.754900    Uiso  ? O
   O18        1.0     0.913900     0.260800     0.754900    Uiso  ? O
   O19        1.0     0.586100     0.429600     0.745100    Uiso  ? O
   O20        1.0     0.239200     0.586100     0.745100    Uiso  ? O
   O21        1.0     0.429600     0.239200     0.745100    Uiso  ? O
   O22        1.0     0.929600     0.086100     0.245100    Uiso  ? O
   O23        1.0     0.739200     0.929600     0.245100    Uiso  ? O
   O24        1.0     0.086100     0.739200     0.245100    Uiso  ? O
   P1         1.0     0.035200     0.750000     0.750000    Uiso  ? P
   P2         1.0     0.464800     0.035200     0.750000    Uiso  ? P
   P3         1.0     0.750000     0.464800     0.750000    Uiso  ? P
   P4         1.0     0.250000     0.535200     0.250000    Uiso  ? P
   P5         1.0     0.964800     0.250000     0.250000    Uiso  ? P
   P6         1.0     0.535200     0.964800     0.250000    Uiso  ? P
   Ti1        1.0     0.384000     0.384000     0.848000    Uiso  ? Ti
   Ti2        1.0     0.884000     0.884000     0.348000    Uiso  ? Ti
   Ti3        1.0     0.616000     0.616000     0.152000    Uiso  ? Ti
   Ti4        1.0     0.116000     0.116000     0.652000    Uiso  ? Ti
