# CIF file generated by supercell program. See https://orex.github.io/supercell
# E_e = 0.0000000000 eV
data_VESTA_phase_1
_chemical_name_common 'Decalithium germanium dodecathiodiphos'
_cell_length_a 8.6877
_cell_length_b 8.6877
_cell_length_c 12.5827
_cell_angle_alpha 90
_cell_angle_beta 90
_cell_angle_gamma 90
_space_group_IT_number 1
_space_group_name_H-M_alt 'P 1'
_space_group_name_Hall 'P 1'
loop_
    _space_group_symop_operation_xyz
    x,y,z
loop_
    _atom_site_label
    _atom_site_type_symbol
    _atom_site_fract_x
    _atom_site_fract_y
    _atom_site_fract_z
    _atom_site_occupancy
    Ge1     Ge   0.50000   0.00000   0.19200   1.000
    Ge1     Ge   0.50000   0.00000   0.69200   1.000
    P1      P    0.00000   0.50000   0.30800   1.000
    P1      P    0.00000   0.50000   0.80800   1.000
    Li1     Li   0.76900   0.24600   0.31080   1.000
    Li1     Li   0.25400   0.26900   0.81080   1.000
    Li1     Li   0.23100   0.75400   0.31080   1.000
    Li1     Li   0.24600   0.76900   0.68920   1.000
    Li1     Li   0.26900   0.25400   0.18920   1.000
    Li1     Li   0.75400   0.23100   0.68920   1.000
    Li1     Li   0.73100   0.74600   0.18920   1.000
    Li2     Li   0.50000   0.00000   0.44510   1.000
    Li2     Li   0.50000   0.00000   0.94510   1.000
    Li2     Li   0.00000   0.50000   0.05490   1.000
    Li2     Li   0.00000   0.50000   0.55490   1.000
    Li3     Li   0.72200   0.76600   0.46050   1.000
    Li3     Li   0.26600   0.22200   0.96050   1.000
    Li3     Li   0.27800   0.76600   0.46050   1.000
    Li3     Li   0.23400   0.72200   0.53950   1.000
    Li3     Li   0.22200   0.26600   0.03950   1.000
    Li3     Li   0.77800   0.73400   0.03950   1.000
    Li4     Li   0.00000   0.00000   0.24600   1.000
    Li4     Li   0.00000   0.00000   0.75400   1.000
    Li4     Li   0.50000   0.50000   0.25400   1.000
    P2      P    0.50000   0.50000   0.00000   1.000
    P2      P    0.00000   0.00000   0.50000   1.000
    S1      S    0.50000   0.68570   0.90880   1.000
    S1      S    0.81430   0.00000   0.40880   1.000
    S1      S    0.50000   0.31430   0.90880   1.000
    S1      S    0.18570   0.00000   0.40880   1.000
    S1      S    0.00000   0.81430   0.59120   1.000
    S1      S    0.31430   0.50000   0.09120   1.000
    S1      S    0.00000   0.18570   0.59120   1.000
    S1      S    0.68570   0.50000   0.09120   1.000
    S2      S    0.50000   0.79540   0.59700   1.000
    S2      S    0.70460   0.00000   0.09700   1.000
    S2      S    0.50000   0.20460   0.59700   1.000
    S2      S    0.29540   0.00000   0.09700   1.000
    S2      S    0.00000   0.70460   0.90300   1.000
    S2      S    0.20460   0.50000   0.40300   1.000
    S2      S    0.00000   0.29540   0.90300   1.000
    S2      S    0.79540   0.50000   0.40300   1.000
    S3      S    0.50000   0.19670   0.29080   1.000
    S3      S    0.30330   0.00000   0.79080   1.000
    S3      S    0.50000   0.80330   0.29080   1.000
    S3      S    0.69670   0.00000   0.79080   1.000
    S3      S    0.00000   0.30330   0.20920   1.000
    S3      S    0.80330   0.50000   0.70920   1.000
    S3      S    0.00000   0.69670   0.20920   1.000
    S3      S    0.19670   0.50000   0.70920   1.000
