
#======================================================================
# CRYSTAL DATA
#----------------------------------------------------------------------
data_VESTA_phase_1

_chemical_name_common                  'XCrySDen XSF file'
_cell_length_a                         8.270590
_cell_length_b                         8.270590
_cell_length_c                         8.326880
_cell_angle_alpha                      60.223370
_cell_angle_beta                       60.223370
_cell_angle_gamma                      60.000000
_cell_volume                           404.108844
_space_group_name_H-M_alt              'P 1'
_space_group_IT_number                 1

loop_
_space_group_symop_operation_xyz
   'x, y, z'

loop_
   _atom_site_label
   _atom_site_occupancy
   _atom_site_fract_x
   _atom_site_fract_y
   _atom_site_fract_z
   _atom_site_adp_type
   _atom_site_U_iso_or_equiv
   _atom_site_type_symbol
   Ge1        1.0     0.359000     0.359000     0.923000    Uiso  ? Ge
   Ge2        1.0     0.859000     0.859000     0.423000    Uiso  ? Ge
   Ge3        1.0     0.641000     0.641000     0.077000    Uiso  ? Ge
   Ge4        1.0     0.141000     0.141000     0.577000    Uiso  ? Ge
   Li1        1.0     0.500000     0.500000     0.500000    Uiso  ? Li
   Li2        1.0     0.000000     0.000000     0.000000    Uiso  ? Li
   O1         1.0     0.295690     0.132200     0.065140    Uiso  ? O
   O2         1.0     0.506970     0.295690     0.065140    Uiso  ? O
   O3         1.0     0.132200     0.506970     0.065140    Uiso  ? O
   O4         1.0     0.632200     0.795690     0.565140    Uiso  ? O
   O5         1.0     0.006970     0.632200     0.565140    Uiso  ? O
   O6         1.0     0.795690     0.006970     0.565140    Uiso  ? O
   O7         1.0     0.704310     0.867800     0.934860    Uiso  ? O
   O8         1.0     0.493030     0.704310     0.934860    Uiso  ? O
   O9         1.0     0.867800     0.493030     0.934860    Uiso  ? O
   O10        1.0     0.367800     0.204310     0.434860    Uiso  ? O
   O11        1.0     0.993030     0.367800     0.434860    Uiso  ? O
   O12        1.0     0.204310     0.993030     0.434860    Uiso  ? O
   O13        1.0     0.576430     0.231950     0.748400    Uiso  ? O
   O14        1.0     0.443220     0.576430     0.748400    Uiso  ? O
   O15        1.0     0.231950     0.443220     0.748400    Uiso  ? O
   O16        1.0     0.731950     0.076430     0.248400    Uiso  ? O
   O17        1.0     0.943220     0.731950     0.248400    Uiso  ? O
   O18        1.0     0.076430     0.943220     0.248400    Uiso  ? O
   O19        1.0     0.423570     0.768050     0.251600    Uiso  ? O
   O20        1.0     0.556780     0.423570     0.251600    Uiso  ? O
   O21        1.0     0.768050     0.556780     0.251600    Uiso  ? O
   O22        1.0     0.268050     0.923570     0.751600    Uiso  ? O
   O23        1.0     0.056780     0.268050     0.751600    Uiso  ? O
   O24        1.0     0.923570     0.056780     0.751600    Uiso  ? O
   P1         1.0     0.250000     0.962530     0.250000    Uiso  ? P
   P2         1.0     0.537470     0.250000     0.250000    Uiso  ? P
   P3         1.0     0.962530     0.537470     0.250000    Uiso  ? P
   P4         1.0     0.462530     0.750000     0.750000    Uiso  ? P
   P5         1.0     0.037470     0.462530     0.750000    Uiso  ? P
   P6         1.0     0.750000     0.037470     0.750000    Uiso  ? P
