
#======================================================================
# CRYSTAL DATA
#----------------------------------------------------------------------
data_VESTA_phase_1

_chemical_name_common                  'XCrySDen XSF file'
_cell_length_a                         8.519998
_cell_length_b                         8.520000
_cell_length_c                         8.521457
_cell_angle_alpha                      60.005653
_cell_angle_beta                       60.005661
_cell_angle_gamma                      59.999992
_cell_volume                           437.436523
_space_group_name_H-M_alt              'P 1'
_space_group_IT_number                 1

loop_
_space_group_symop_operation_xyz
   'x, y, z'

loop_
   _atom_site_label
   _atom_site_occupancy
   _atom_site_fract_x
   _atom_site_fract_y
   _atom_site_fract_z
   _atom_site_adp_type
   _atom_site_U_iso_or_equiv
   _atom_site_type_symbol
   Li1        1.0     0.500000     0.500000     0.500000    Uiso  ? Li
   Li2        1.0     0.000000     0.000000     0.000000    Uiso  ? Li
   O1         1.0    -0.002506     0.813240     0.568290    Uiso  ? O
   O2         1.0     0.620976    -0.002506     0.568290    Uiso  ? O
   O3         1.0     0.813240     0.620976     0.568290    Uiso  ? O
   O4         1.0     0.313240     0.497494     1.068290    Uiso  ? O
   O5         1.0     0.120976     0.313240     1.068290    Uiso  ? O
   O6         1.0     0.497494     0.120976     1.068290    Uiso  ? O
   O7         1.0     1.002506     0.186760     0.431710    Uiso  ? O
   O8         1.0     0.379024     1.002506     0.431710    Uiso  ? O
   O9         1.0     0.186760     0.379024     0.431710    Uiso  ? O
   O10        1.0     0.686760     0.502506    -0.068290    Uiso  ? O
   O11        1.0     0.879024     0.686760    -0.068290    Uiso  ? O
   O12        1.0     0.502506     0.879024    -0.068290    Uiso  ? O
   O13        1.0     0.414412     0.554743     0.266434    Uiso  ? O
   O14        1.0     0.764412     0.414412     0.266434    Uiso  ? O
   O15        1.0     0.554743     0.764412     0.266434    Uiso  ? O
   O16        1.0     0.054743     0.914412     0.766434    Uiso  ? O
   O17        1.0     0.264412     0.054743     0.766434    Uiso  ? O
   O18        1.0     0.914412     0.264412     0.766434    Uiso  ? O
   O19        1.0     0.585588     0.445257     0.733566    Uiso  ? O
   O20        1.0     0.235588     0.585588     0.733566    Uiso  ? O
   O21        1.0     0.445257     0.235588     0.733566    Uiso  ? O
   O22        1.0     0.945257     0.085588     0.233566    Uiso  ? O
   O23        1.0     0.735588     0.945257     0.233566    Uiso  ? O
   O24        1.0     0.085588     0.735588     0.233566    Uiso  ? O
   P1         1.0     0.041288     0.750000     0.750000    Uiso  ? P
   P2         1.0     0.458712     0.041288     0.750000    Uiso  ? P
   P3         1.0     0.750000     0.458712     0.750000    Uiso  ? P
   P4         1.0     0.250000     0.541287     0.250000    Uiso  ? P
   P5         1.0     0.958713     0.250000     0.250000    Uiso  ? P
   P6         1.0     0.541287     0.958713     0.250000    Uiso  ? P
   Ti1        1.0     0.359750     0.359750     0.920751    Uiso  ? Ti
   Ti2        1.0     0.859750     0.859750     0.420751    Uiso  ? Ti
   Ti3        1.0     0.640250     0.640250     0.079249    Uiso  ? Ti
   Ti4        1.0     0.140250     0.140250     0.579249    Uiso  ? Ti
