
#======================================================================
# CRYSTAL DATA
#----------------------------------------------------------------------
data_VESTA_phase_1

_chemical_name_common                  'Decalithium germanium dodecathiodiphos'
_cell_length_a                         8.6877(8)
_cell_length_b                         8.6877(8)
_cell_length_c                         12.5827(13)
_cell_angle_alpha                      90.000000
_cell_angle_beta                       90.000000
_cell_angle_gamma                      90.000000
_cell_volume                           949.693560
_space_group_name_H-M_alt              'P 42/n m c'
_space_group_IT_number                 137

loop_
_space_group_symop_operation_xyz
   'x, y, z'
   '-x, -y, z'
   '-y+1/2, x+1/2, z+1/2'
   'y+1/2, -x+1/2, z+1/2'
   '-x+1/2, y+1/2, -z+1/2'
   'x+1/2, -y+1/2, -z+1/2'
   'y, x, -z'
   '-y, -x, -z'
   '-x+1/2, -y+1/2, -z+1/2'
   'x+1/2, y+1/2, -z+1/2'
   'y, -x, -z'
   '-y, x, -z'
   'x, -y, z'
   '-x, y, z'
   '-y+1/2, -x+1/2, z+1/2'
   'y+1/2, x+1/2, z+1/2'

loop_
   _atom_site_label
   _atom_site_occupancy
   _atom_site_fract_x
   _atom_site_fract_y
   _atom_site_fract_z
   _atom_site_adp_type
   _atom_site_B_iso_or_equiv
   _atom_site_type_symbol
   Li1        0.4600  0.754(2)    -0.231(2)     0.6892(13)  Biso  5.900000 Li
   Li2        1.0     0.500000     0.000000     0.4451(14)  Biso  4.400000 Li
   Li3        0.3740  0.766(2)    -0.278(2)     0.5395(15)  Biso  5.400000 Li
   Li4        0.6500  0.500000     0.500000     0.746(3)    Biso  7.300000 Li
   Ge1        0.5000  0.500000     0.000000     1.1920(4)   Biso  1.880000 Ge
   P1         0.5000  0.500000     0.000000     1.1920(4)   Biso  1.880000 P
   P2         1.0     0.500000     0.500000     1.000000    Biso  2.010000 P
   S1         1.0     0.500000     0.6857(7)    0.9088(4)   Biso  2.360000 S
   S2         1.0     0.500000    -0.2046(7)    0.5970(5)   Biso  2.060000 S
   S3         1.0     0.500000     0.1967(5)    0.2908(4)   Biso  1.470000 S
