data_VESTA_phase_1
_audit_creation_method	'Created with CONVERT.DLL (www.crystalimpact.com)'
_audit_creation_date	2021-10-13
_audit_update_record	2021-10-13
_chemical_formula_sum	'Fe12 V24 O84 Li12'
_chemical_formula_weight	3320.002
_cell_length_a	13.4630(2)
_cell_length_b	 8.1882(1)
_cell_length_c	14.3860(2)
_cell_angle_alpha	90.000
_cell_angle_beta	96.547(1)
_cell_angle_gamma	90.000
_cell_volume	1575.5(0)
_symmetry_int_tables_number	9
_symmetry_space_group_name_H-M	'C 1 c 1'
_symmetry_space_group_name_Hall	'C_-2yc'

loop_
_symmetry_equiv_pos_site_id
_symmetry_equiv_pos_as_xyz
1 x,y,z
2 x,-y,1/2+z
3 1/2+x,1/2+y,z
4 1/2+x,1/2-y,1/2+z

loop_
_atom_type_symbol
_atom_type_oxidation_number
_atom_type_radius_bond
Fe	?	1.200
V	?	1.200
O	?	1.200
Li	?	1.200


loop_
_atom_site_label
_atom_site_type_symbol
_atom_site_fract_x
_atom_site_fract_y
_atom_site_fract_z
_atom_site_occupancy
_atom_site_symmetry_multiplicity
_atom_site_Wyckoff_symbol
_atom_site_attached_hydrogens
_atom_site_calc_flag
_atom_site_thermal_displace_type
_atom_site_u_iso_or_equiv
Fe1 Fe  0.4989  0.8007  0.3683  1.000 4 a ? d Uani  0.00792
Fe2 Fe  0.8516  0.8249  0.5417  1.000 4 a ? d Uani  0.00809
Fe3 Fe  0.6996  0.3057  0.7118  1.000 4 a ? d Uani  0.00824
V1 V  0.4238  1.0266  0.1763  1.000 4 a ? d Uani  0.00798
V2 V  0.7046  0.9631  0.3572  1.000 4 a ? d Uani  0.00810
V3 V  0.5742  0.4577  0.5152  1.000 4 a ? d Uani  0.00822
V4 V  0.6267  0.9546  0.5670  1.000 4 a ? d Uani  0.00777
V5 V  0.2740  0.9742  0.4044  1.000 4 a ? d Uani  0.00740
V6 V  0.4060  0.4597  0.2403  1.000 4 a ? d Uani  0.00792
O1 O  0.4794  0.3226  0.4852  1.000 4 a ? d Uani  0.01112
O2 O  0.3234  1.1494  0.1467  1.000 4 a ? d Uani  0.01162
O3 O  0.2372  0.9924  0.2878  1.000 4 a ? d Uani  0.01014
O4 O  0.3942  0.4865  0.1200  1.000 4 a ? d Uani  0.00994
O5 O  0.4227  0.6411  0.2926  1.000 4 a ? d Uani  0.01414
O6 O  0.2953  1.1601  0.4489  1.000 4 a ? d Uani  0.01724
O7 O  0.5269  0.8842  0.6239  1.000 4 a ? d Uani  0.01360
O8 O  0.6207  0.7893  0.3038  1.000 4 a ? d Uani  0.00994
O9 O  0.5922  0.9684  0.4426  1.000 4 a ? d Uani  0.00950
O10 O  0.6755  1.1358  0.3070  1.000 4 a ? d Uani  0.01373
O11 O  0.6619  1.1367  0.6087  1.000 4 a ? d Uani  0.01442
O12 O  0.6740  0.3820  0.4572  1.000 4 a ? d Uani  0.01473
O13 O  0.2932  0.3696  0.2783  1.000 4 a ? d Uani  0.01056
O14 O  0.5034  0.3436  0.2737  1.000 4 a ? d Uani  0.01362
O15 O  0.4545  1.0028  0.2937  1.000 4 a ? d Uani  0.01114
O16 O  0.5417  0.6433  0.4736  1.000 4 a ? d Uani  0.01558
O17 O  0.4042  0.8428  0.1296  1.000 4 a ? d Uani  0.01547
O18 O  0.7884  0.9996  0.4533  1.000 4 a ? d Uani  0.01152
O19 O  0.6144  0.4635  0.6326  1.000 4 a ? d Uani  0.01107
O20 O  0.3761  0.8541  0.4337  1.000 4 a ? d Uani  0.01291
O21 O  0.7179  0.8182  0.5967  1.000 4 a ? d Uani  0.01407


loop_
_atom_site_aniso_label
_atom_site_aniso_U_11
_atom_site_aniso_U_22
_atom_site_aniso_U_33
_atom_site_aniso_U_12
_atom_site_aniso_U_13
_atom_site_aniso_U_23
Fe1  0.00690  0.00770  0.00900 -0.00020  0.00020  0.00010
Fe2  0.00750  0.00780  0.00880  0.00110  0.00020 -0.00040
Fe3  0.00790  0.00870  0.00820 -0.00010  0.00120  0.00000
V1  0.00680  0.00870  0.00840  0.00060  0.00070  0.00020
V2  0.00820  0.00780  0.00820 -0.00020  0.00050  0.00020
V3  0.00810  0.00840  0.00800 -0.00020  0.00020  0.00050
V4  0.00750  0.00870  0.00700 -0.00010  0.00040 -0.00030
V5  0.00740  0.00800  0.00660  0.00070  0.00000  0.00020
V6  0.00790  0.00810  0.00770 -0.00010  0.00060  0.00030
O1  0.00870  0.01300  0.01200 -0.00300  0.00260 -0.00230
O2  0.00590  0.01800  0.01100  0.00330  0.00110  0.00530
O3  0.01230  0.01100  0.00700 -0.00160  0.00060  0.00160
O4  0.01260  0.00750  0.00910 -0.00010 -0.00150  0.00300
O5  0.01700  0.01100  0.01400 -0.00430 -0.00010 -0.00370
O6  0.02000  0.01300  0.01800 -0.00220 -0.00100 -0.00210
O7  0.01080  0.01700  0.01400  0.00290  0.00570 -0.00300
O8  0.01000  0.01050  0.00980 -0.00210  0.00320 -0.00250
O9  0.00970  0.01250  0.00620 -0.00120  0.00050  0.00080
O10  0.01500  0.01400  0.01200  0.00000  0.00070  0.00240
O11  0.02000  0.01000  0.01300 -0.00170  0.00080 -0.00030
O12  0.01580  0.01370  0.01570  0.00250  0.00620 -0.00100
O13  0.00950  0.01060  0.01200 -0.00140  0.00300 -0.00130
O14  0.01070  0.01500  0.01500  0.00380  0.00080  0.00440
O15  0.01390  0.01100  0.00800  0.00110 -0.00100  0.00010
O16  0.02000  0.01300  0.01300  0.00360 -0.00130  0.00410
O17  0.02100  0.01000  0.01500 -0.00280  0.00030 -0.00530
O18  0.01330  0.01100  0.00930  0.00150 -0.00290 -0.00080
O19  0.00940  0.01300  0.01000  0.00200 -0.00240 -0.00080
O20  0.01400  0.01300  0.01200  0.00310  0.00270  0.00200
O21  0.00930  0.01400  0.01900  0.00060  0.00200  0.00530
