
#======================================================================
# CRYSTAL DATA
#----------------------------------------------------------------------
data_VESTA_phase_1

_chemical_name_common                  'Decalithium tin dodecathiodiphosphate'
_cell_length_a                         8.7297(7)
_cell_length_b                         8.7297(7)
_cell_length_c                         12.7428(10)
_cell_angle_alpha                      90.000000
_cell_angle_beta                       90.000000
_cell_angle_gamma                      90.000000
_cell_volume                           971.098998
_space_group_name_H-M_alt              'P 1'
_space_group_IT_number                 1

loop_
_space_group_symop_operation_xyz
   'x, y, z'

loop_
   _atom_site_label
   _atom_site_occupancy
   _atom_site_fract_x
   _atom_site_fract_y
   _atom_site_fract_z
   _atom_site_adp_type
   _atom_site_B_iso_or_equiv
   _atom_site_type_symbol
   Li1        0.3500  0.5085(17)   0.0197(17)   0.4313(11)  Biso  2.200000 Li
   Li1        0.3500  0.4915(17)   0.9803(17)   0.5687(11)  Biso  2.200000 Li
   Li1        0.3500  0.9915(17)   0.4803(17)   0.4313(11)  Biso  2.200000 Li
   Li1        0.3500  0.0085(17)   0.5197(17)   0.5687(11)  Biso  2.200000 Li
   Li1        0.3500  0.4803(17)   0.5085(17)   0.9313(11)  Biso  2.200000 Li
   Li1        0.3500  0.5197(17)   0.4915(17)   0.0687(11)  Biso  2.200000 Li
   Li1        0.3500  0.0197(17)   0.9915(17)   0.9313(11)  Biso  2.200000 Li
   Li1        0.3500  0.9803(17)   0.0085(17)   0.0687(11)  Biso  2.200000 Li
   Li1        0.3500  0.4915(17)   0.5197(17)   0.5687(11)  Biso  2.200000 Li
   Li1        0.3500  0.5085(17)   0.4803(17)   0.4313(11)  Biso  2.200000 Li
   Li1        0.3500  0.0085(17)   0.9803(17)   0.5687(11)  Biso  2.200000 Li
   Li1        0.3500  0.9915(17)   0.0197(17)   0.4313(11)  Biso  2.200000 Li
   Li1        0.3500  0.5197(17)   0.0085(17)   0.0687(11)  Biso  2.200000 Li
   Li1        0.3500  0.4803(17)   0.9915(17)   0.9313(11)  Biso  2.200000 Li
   Li1        0.3500  0.9803(17)   0.4915(17)   0.0687(11)  Biso  2.200000 Li
   Li1        0.3500  0.0197(17)   0.5085(17)   0.9313(11)  Biso  2.200000 Li
   Li2        0.8800  0.250000     0.250000     0.1968(18)  Biso  5.900000 Li
   Li2        0.8800  0.750000     0.750000     0.8032(18)  Biso  5.900000 Li
   Li2        0.8800  0.250000     0.250000     0.6968(18)  Biso  5.900000 Li
   Li2        0.8800  0.750000     0.750000     0.3032(18)  Biso  5.900000 Li
   Li3        0.5000  0.511(2)     0.973(2)     0.2929(13)  Biso  8.200000 Li
   Li3        0.5000  0.489(2)     0.027(2)     0.7071(13)  Biso  8.200000 Li
   Li3        0.5000  0.989(2)     0.527(2)     0.2929(13)  Biso  8.200000 Li
   Li3        0.5000  0.011(2)     0.473(2)     0.7071(13)  Biso  8.200000 Li
   Li3        0.5000  0.527(2)     0.511(2)     0.7929(13)  Biso  8.200000 Li
   Li3        0.5000  0.473(2)     0.489(2)     0.2071(13)  Biso  8.200000 Li
   Li3        0.5000  0.973(2)     0.989(2)     0.7929(13)  Biso  8.200000 Li
   Li3        0.5000  0.027(2)     0.011(2)     0.2071(13)  Biso  8.200000 Li
   Li3        0.5000  0.489(2)     0.473(2)     0.7071(13)  Biso  8.200000 Li
   Li3        0.5000  0.511(2)     0.527(2)     0.2929(13)  Biso  8.200000 Li
   Li3        0.5000  0.011(2)     0.027(2)     0.7071(13)  Biso  8.200000 Li
   Li3        0.5000  0.989(2)     0.973(2)     0.2929(13)  Biso  8.200000 Li
   Li3        0.5000  0.473(2)     0.011(2)     0.2071(13)  Biso  8.200000 Li
   Li3        0.5000  0.527(2)     0.989(2)     0.7929(13)  Biso  8.200000 Li
   Li3        0.5000  0.027(2)     0.489(2)     0.2071(13)  Biso  8.200000 Li
   Li3        0.5000  0.973(2)     0.511(2)     0.7929(13)  Biso  8.200000 Li
   Li4        0.7400  0.250000     0.750000     0.502(2)    Biso  7.600000 Li
   Li4        0.7400  0.750000     0.250000     0.498(2)    Biso  7.600000 Li
   Li4        0.7400  0.750000     0.250000     0.002(2)    Biso  7.600000 Li
   Li4        0.7400  0.250000     0.750000     0.998(2)    Biso  7.600000 Li
   Sn1        0.5000  0.250000     0.250000     0.9385(4)   Biso  2.530000 Sn
   Sn1        0.5000  0.750000     0.750000     0.0615(4)   Biso  2.530000 Sn
   Sn1        0.5000  0.250000     0.250000     0.4385(4)   Biso  2.530000 Sn
   Sn1        0.5000  0.750000     0.750000     0.5615(4)   Biso  2.530000 Sn
   P1         0.5000  0.250000     0.250000     0.9385(4)   Biso  2.530000 P
   P1         0.5000  0.750000     0.750000     0.0615(4)   Biso  2.530000 P
   P1         0.5000  0.250000     0.250000     0.4385(4)   Biso  2.530000 P
   P1         0.5000  0.750000     0.750000     0.5615(4)   Biso  2.530000 P
   P2         1.0     0.250000     0.750000     0.750000    Biso  1.990000 P
   P2         1.0     0.750000     0.250000     0.250000    Biso  1.990000 P
   S1         1.0     0.250000     0.9374(5)    0.6597(4)   Biso  2.570000 S
   S1         1.0     0.750000     0.0626(5)    0.3403(4)   Biso  2.570000 S
   S1         1.0     0.250000     0.5626(5)    0.6597(4)   Biso  2.570000 S
   S1         1.0     0.750000     0.4374(5)    0.3403(4)   Biso  2.570000 S
   S1         1.0     0.5626(5)    0.250000     0.1597(4)   Biso  2.570000 S
   S1         1.0     0.4374(5)    0.750000     0.8403(4)   Biso  2.570000 S
   S1         1.0     0.9374(5)    0.250000     0.1597(4)   Biso  2.570000 S
   S1         1.0     0.0626(5)    0.750000     0.8403(4)   Biso  2.570000 S
   S2         1.0     0.250000     0.0409(7)    0.3476(7)   Biso  3.500000 S
   S2         1.0     0.750000     0.9591(7)    0.6524(7)   Biso  3.500000 S
   S2         1.0     0.250000     0.4591(7)    0.3476(7)   Biso  3.500000 S
   S2         1.0     0.750000     0.5409(7)    0.6524(7)   Biso  3.500000 S
   S2         1.0     0.4591(7)    0.250000     0.8476(7)   Biso  3.500000 S
   S2         1.0     0.5409(7)    0.750000     0.1524(7)   Biso  3.500000 S
   S2         1.0     0.0409(7)    0.250000     0.8476(7)   Biso  3.500000 S
   S2         1.0     0.9591(7)    0.750000     0.1524(7)   Biso  3.500000 S
   S3         1.0     0.250000     0.4529(7)    0.0396(5)   Biso  2.140000 S
   S3         1.0     0.750000     0.5471(7)    0.9604(5)   Biso  2.140000 S
   S3         1.0     0.250000     0.0471(7)    0.0396(5)   Biso  2.140000 S
   S3         1.0     0.750000     0.9529(7)    0.9604(5)   Biso  2.140000 S
   S3         1.0     0.0471(7)    0.250000     0.5396(5)   Biso  2.140000 S
   S3         1.0     0.9529(7)    0.750000     0.4604(5)   Biso  2.140000 S
   S3         1.0     0.4529(7)    0.250000     0.5396(5)   Biso  2.140000 S
   S3         1.0     0.5471(7)    0.750000     0.4604(5)   Biso  2.140000 S
